/*--------------------------------*- C++ -*----------------------------------*\
  =========                 |
  \\      /  F ield         | OpenFOAM: The Open Source CFD Toolbox
   \\    /   O peration     | Website:  https://openfoam.org
    \\  /    A nd           | Version:  8
     \\/     M anipulation  |
\*---------------------------------------------------------------------------*/
FoamFile
{
    version     2.0;
    format      ascii;
    class       dictionary;
    object      blockMeshDict;
}
// * * * * * * * * * * * * * * * * * * * * * * * * * * * * * * * * * * * * * //

convertToMeters 1e-6;

vertices
(
    (0 0 0)         //0
    (8 0 0)      //1   
    (8 50 0)    //2
    (0 50 0)       //3
    (0 0 1)         //4
    (8 0 1)      //5
    (8 50 1)   //6
    (0 50 1)      //7
);

blocks
(
    hex (0 1 2 3 4 5 6 7) (1000 6250 1) simpleGrading (1 1 1)   
);

edges
(
);

boundary
(
    left
    {
        type            wall;
        faces
        (
            (3 0 4 7)
        );
    }
    
    right
    {
        type            wall;
        faces
        (
            (6 5 1 2)
        );
    }
    
    top
    {
        type            wall;
        faces
        (
            (6 2 3 7)
        );
    }
    
    bottom
    {
        type            wall;
        faces
        (
            (4 0 1 5)
        );
    }

);

mergePatchPairs
(
);

// ************************************************************************* //
