/*--------------------------------*- C++ -*----------------------------------*\
| =========                 |                                                 |
| \\      /  F ield         | OpenFOAM: The Open Source CFD Toolbox           |
|  \\    /   O peration     | Version:  v2006                                 |
|   \\  /    A nd           | Website:  www.openfoam.com                      |
|    \\/     M anipulation  |                                                 |
\*---------------------------------------------------------------------------*/
FoamFile
{
    version     2.0;
    format      ascii;
    class       dictionary;
    location    "system";
    object      fvSolution;
}
// * * * * * * * * * * * * * * * * * * * * * * * * * * * * * * * * * * * * * //

solvers
{
    U
    {
        solver          PCG;
        preconditioner  DIC;
        tolerance       1e-9;
        relTol          0;     
        
    /*    solver          smoothSolver;
        smoother        symGaussSeidel;
        tolerance       1e-6;                         
        relTol          0;     */  
    }
    
    P
    {
        solver          PCG;
        preconditioner  DIC;
        tolerance       1e-9;
        relTol          0;    
        
     /*   solver          smoothSolver;
        smoother        symGaussSeidel;
        tolerance       1e-6;                         
        relTol          0;   */
    }
}

SIMPLE
{
    nNonOrthogonalCorrectors 2;
}


// ************************************************************************* //
