/*--------------------------------*- C++ -*----------------------------------*\
  =========                 |
  \\      /  F ield         | OpenFOAM: The Open Source CFD Toolbox
   \\    /   O peration     | Website:  https://openfoam.org
    \\  /    A nd           | Version:  8
     \\/     M anipulation  |
\*---------------------------------------------------------------------------*/
FoamFile
{
    version     2.0;
    format      ascii;
    class       dictionary;
    location    "system";
    object      setFieldsDict;
}
// * * * * * * * * * * * * * * * * * * * * * * * * * * * * * * * * * * * * * //

defaultFieldValues
(
    volScalarFieldValue P -1
    volScalarFieldValue U 0
);

regions
(

   boxToCell
      {
        box (0 0 -1) (10e-6 0.1e-6 1e-6);
        fieldValues
        (
             volScalarFieldValue P 1
        );
      }  
     

   /*cylinderToCell
    {
        p1 (1.5e-6 0 -1);
        p2 (1.5e-6 0 1);
        radius 0.1e-6; 
        fieldValues
        (
            volScalarFieldValue P 1        
        );
    }*/
);



// ************************************************************************* //
